* NGSPICE file created from multiply_add_64x64.ext - technology: sky130A

* Black-box entry subcircuit for sky130_ef_sc_hd__decap_12 abstract view
.subckt sky130_ef_sc_hd__decap_12 VGND VPWR VPB VNB
.ends

* Black-box entry subcircuit for sky130_fd_sc_hd__fill_2 abstract view
.subckt sky130_fd_sc_hd__fill_2 VGND VNB VPB VPWR
.ends

* Black-box entry subcircuit for sky130_fd_sc_hd__fill_1 abstract view
.subckt sky130_fd_sc_hd__fill_1 VGND VNB VPB VPWR
.ends

* Black-box entry subcircuit for sky130_fd_sc_hd__fa_2 abstract view
.subckt sky130_fd_sc_hd__fa_2 A B CIN VGND VNB VPB VPWR COUT SUM
.ends

* Black-box entry subcircuit for sky130_fd_sc_hd__decap_3 abstract view
.subckt sky130_fd_sc_hd__decap_3 VGND VNB VPB VPWR
.ends

* Black-box entry subcircuit for sky130_fd_sc_hd__decap_4 abstract view
.subckt sky130_fd_sc_hd__decap_4 VGND VNB VPB VPWR
.ends

* Black-box entry subcircuit for sky130_fd_sc_hd__fa_1 abstract view
.subckt sky130_fd_sc_hd__fa_1 A B CIN VGND VNB VPB VPWR COUT SUM
.ends

* Black-box entry subcircuit for sky130_fd_sc_hd__decap_8 abstract view
.subckt sky130_fd_sc_hd__decap_8 VGND VNB VPB VPWR
.ends

* Black-box entry subcircuit for sky130_fd_sc_hd__xor2_1 abstract view
.subckt sky130_fd_sc_hd__xor2_1 A B VGND VNB VPB VPWR X
.ends

* Black-box entry subcircuit for sky130_fd_sc_hd__decap_6 abstract view
.subckt sky130_fd_sc_hd__decap_6 VGND VNB VPB VPWR
.ends

* Black-box entry subcircuit for sky130_fd_sc_hd__tapvpwrvgnd_1 abstract view
.subckt sky130_fd_sc_hd__tapvpwrvgnd_1 VGND VPWR
.ends

* Black-box entry subcircuit for sky130_fd_sc_hd__dfxtp_1 abstract view
.subckt sky130_fd_sc_hd__dfxtp_1 CLK D VGND VNB VPB VPWR Q
.ends

* Black-box entry subcircuit for sky130_fd_sc_hd__a22o_1 abstract view
.subckt sky130_fd_sc_hd__a22o_1 A1 A2 B1 B2 VGND VNB VPB VPWR X
.ends

* Black-box entry subcircuit for sky130_fd_sc_hd__ha_1 abstract view
.subckt sky130_fd_sc_hd__ha_1 A B VGND VNB VPB VPWR COUT SUM
.ends

* Black-box entry subcircuit for sky130_fd_sc_hd__dfxtp_2 abstract view
.subckt sky130_fd_sc_hd__dfxtp_2 CLK D VGND VNB VPB VPWR Q
.ends

* Black-box entry subcircuit for sky130_fd_sc_hd__dfxtp_4 abstract view
.subckt sky130_fd_sc_hd__dfxtp_4 CLK D VGND VNB VPB VPWR Q
.ends

* Black-box entry subcircuit for sky130_fd_sc_hd__and2_1 abstract view
.subckt sky130_fd_sc_hd__and2_1 A B VGND VNB VPB VPWR X
.ends

* Black-box entry subcircuit for sky130_fd_sc_hd__xor2_2 abstract view
.subckt sky130_fd_sc_hd__xor2_2 A B VGND VNB VPB VPWR X
.ends

* Black-box entry subcircuit for sky130_fd_sc_hd__inv_1 abstract view
.subckt sky130_fd_sc_hd__inv_1 A VGND VNB VPB VPWR Y
.ends

* Black-box entry subcircuit for sky130_fd_sc_hd__buf_2 abstract view
.subckt sky130_fd_sc_hd__buf_2 A VGND VNB VPB VPWR X
.ends

* Black-box entry subcircuit for sky130_fd_sc_hd__conb_1 abstract view
.subckt sky130_fd_sc_hd__conb_1 VGND VNB VPB VPWR HI LO
.ends

* Black-box entry subcircuit for sky130_fd_sc_hd__ha_2 abstract view
.subckt sky130_fd_sc_hd__ha_2 A B VGND VNB VPB VPWR COUT SUM
.ends

* Black-box entry subcircuit for sky130_fd_sc_hd__clkbuf_2 abstract view
.subckt sky130_fd_sc_hd__clkbuf_2 A VGND VNB VPB VPWR X
.ends

* Black-box entry subcircuit for sky130_fd_sc_hd__buf_12 abstract view
.subckt sky130_fd_sc_hd__buf_12 A VGND VNB VPB VPWR X
.ends

* Black-box entry subcircuit for sky130_fd_sc_hd__a21o_1 abstract view
.subckt sky130_fd_sc_hd__a21o_1 A1 A2 B1 VGND VNB VPB VPWR X
.ends

* Black-box entry subcircuit for sky130_fd_sc_hd__a22o_2 abstract view
.subckt sky130_fd_sc_hd__a22o_2 A1 A2 B1 B2 VGND VNB VPB VPWR X
.ends

* Black-box entry subcircuit for sky130_fd_sc_hd__clkbuf_4 abstract view
.subckt sky130_fd_sc_hd__clkbuf_4 A VGND VNB VPB VPWR X
.ends

* Black-box entry subcircuit for sky130_fd_sc_hd__buf_4 abstract view
.subckt sky130_fd_sc_hd__buf_4 A VGND VNB VPB VPWR X
.ends

* Black-box entry subcircuit for sky130_fd_sc_hd__dlymetal6s2s_1 abstract view
.subckt sky130_fd_sc_hd__dlymetal6s2s_1 A VGND VNB VPB VPWR X
.ends

* Black-box entry subcircuit for sky130_fd_sc_hd__a32o_4 abstract view
.subckt sky130_fd_sc_hd__a32o_4 A1 A2 A3 B1 B2 VGND VNB VPB VPWR X
.ends

* Black-box entry subcircuit for sky130_fd_sc_hd__clkbuf_16 abstract view
.subckt sky130_fd_sc_hd__clkbuf_16 A VGND VNB VPB VPWR X
.ends

* Black-box entry subcircuit for sky130_fd_sc_hd__xor2_4 abstract view
.subckt sky130_fd_sc_hd__xor2_4 A B VGND VNB VPB VPWR X
.ends

* Black-box entry subcircuit for sky130_fd_sc_hd__clkbuf_1 abstract view
.subckt sky130_fd_sc_hd__clkbuf_1 A VGND VNB VPB VPWR X
.ends

* Black-box entry subcircuit for sky130_fd_sc_hd__a22o_4 abstract view
.subckt sky130_fd_sc_hd__a22o_4 A1 A2 B1 B2 VGND VNB VPB VPWR X
.ends

* Black-box entry subcircuit for sky130_fd_sc_hd__ha_4 abstract view
.subckt sky130_fd_sc_hd__ha_4 A B VGND VNB VPB VPWR COUT SUM
.ends

* Black-box entry subcircuit for sky130_fd_sc_hd__a21o_2 abstract view
.subckt sky130_fd_sc_hd__a21o_2 A1 A2 B1 VGND VNB VPB VPWR X
.ends

* Black-box entry subcircuit for sky130_fd_sc_hd__buf_6 abstract view
.subckt sky130_fd_sc_hd__buf_6 A VGND VNB VPB VPWR X
.ends

* Black-box entry subcircuit for sky130_fd_sc_hd__clkdlybuf4s25_1 abstract view
.subckt sky130_fd_sc_hd__clkdlybuf4s25_1 A VGND VNB VPB VPWR X
.ends

* Black-box entry subcircuit for sky130_fd_sc_hd__clkdlybuf4s50_1 abstract view
.subckt sky130_fd_sc_hd__clkdlybuf4s50_1 A VGND VNB VPB VPWR X
.ends

* Black-box entry subcircuit for sky130_fd_sc_hd__a32o_1 abstract view
.subckt sky130_fd_sc_hd__a32o_1 A1 A2 A3 B1 B2 VGND VNB VPB VPWR X
.ends

* Black-box entry subcircuit for sky130_fd_sc_hd__a21o_4 abstract view
.subckt sky130_fd_sc_hd__a21o_4 A1 A2 B1 VGND VNB VPB VPWR X
.ends

* Black-box entry subcircuit for sky130_fd_sc_hd__and2_2 abstract view
.subckt sky130_fd_sc_hd__and2_2 A B VGND VNB VPB VPWR X
.ends

.subckt multiply_add_64x64 VGND VPWR a[0] a[10] a[11] a[12] a[13] a[14] a[15] a[16]
+ a[17] a[18] a[19] a[1] a[20] a[21] a[22] a[23] a[24] a[25] a[26] a[27] a[28] a[29]
+ a[2] a[30] a[31] a[32] a[33] a[34] a[35] a[36] a[37] a[38] a[39] a[3] a[40] a[41]
+ a[42] a[43] a[44] a[45] a[46] a[47] a[48] a[49] a[4] a[50] a[51] a[52] a[53] a[54]
+ a[55] a[56] a[57] a[58] a[59] a[5] a[60] a[61] a[62] a[63] a[6] a[7] a[8] a[9] b[0]
+ b[10] b[11] b[12] b[13] b[14] b[15] b[16] b[17] b[18] b[19] b[1] b[20] b[21] b[22]
+ b[23] b[24] b[25] b[26] b[27] b[28] b[29] b[2] b[30] b[31] b[32] b[33] b[34] b[35]
+ b[36] b[37] b[38] b[39] b[3] b[40] b[41] b[42] b[43] b[44] b[45] b[46] b[47] b[48]
+ b[49] b[4] b[50] b[51] b[52] b[53] b[54] b[55] b[56] b[57] b[58] b[59] b[5] b[60]
+ b[61] b[62] b[63] b[6] b[7] b[8] b[9] c[0] c[100] c[101] c[102] c[103] c[104] c[105]
+ c[106] c[107] c[108] c[109] c[10] c[110] c[111] c[112] c[113] c[114] c[115] c[116]
+ c[117] c[118] c[119] c[11] c[120] c[121] c[122] c[123] c[124] c[125] c[126] c[127]
+ c[12] c[13] c[14] c[15] c[16] c[17] c[18] c[19] c[1] c[20] c[21] c[22] c[23] c[24]
+ c[25] c[26] c[27] c[28] c[29] c[2] c[30] c[31] c[32] c[33] c[34] c[35] c[36] c[37]
+ c[38] c[39] c[3] c[40] c[41] c[42] c[43] c[44] c[45] c[46] c[47] c[48] c[49] c[4]
+ c[50] c[51] c[52] c[53] c[54] c[55] c[56] c[57] c[58] c[59] c[5] c[60] c[61] c[62]
+ c[63] c[64] c[65] c[66] c[67] c[68] c[69] c[6] c[70] c[71] c[72] c[73] c[74] c[75]
+ c[76] c[77] c[78] c[79] c[7] c[80] c[81] c[82] c[83] c[84] c[85] c[86] c[87] c[88]
+ c[89] c[8] c[90] c[91] c[92] c[93] c[94] c[95] c[96] c[97] c[98] c[99] c[9] clk
+ o[0] o[100] o[101] o[102] o[103] o[104] o[105] o[106] o[107] o[108] o[109] o[10]
+ o[110] o[111] o[112] o[113] o[114] o[115] o[116] o[117] o[118] o[119] o[11] o[120]
+ o[121] o[122] o[123] o[124] o[125] o[126] o[127] o[12] o[13] o[14] o[15] o[16] o[17]
+ o[18] o[19] o[1] o[20] o[21] o[22] o[23] o[24] o[25] o[26] o[27] o[28] o[29] o[2]
+ o[30] o[31] o[32] o[33] o[34] o[35] o[36] o[37] o[38] o[39] o[3] o[40] o[41] o[42]
+ o[43] o[44] o[45] o[46] o[47] o[48] o[49] o[4] o[50] o[51] o[52] o[53] o[54] o[55]
+ o[56] o[57] o[58] o[59] o[5] o[60] o[61] o[62] o[63] o[64] o[65] o[66] o[67] o[68]
+ o[69] o[6] o[70] o[71] o[72] o[73] o[74] o[75] o[76] o[77] o[78] o[79] o[7] o[80]
+ o[81] o[82] o[83] o[84] o[85] o[86] o[87] o[88] o[89] o[8] o[90] o[91] o[92] o[93]
+ o[94] o[95] o[96] o[97] o[98] o[99] o[9] rst
XFILLER_140_296 VGND VPWR VPWR VGND sky130_ef_sc_hd__decap_12
XFILLER_39_222 VGND VGND VPWR VPWR sky130_fd_sc_hd__fill_2
XFILLER_79_391 VGND VGND VPWR VPWR sky130_fd_sc_hd__fill_1
Xdadda_fa_1_57_8 dadda_fa_1_57_8/A dadda_fa_1_57_8/B dadda_fa_1_57_8/CIN VGND VGND
+ VPWR VPWR dadda_fa_2_58_3/A dadda_fa_3_57_0/A sky130_fd_sc_hd__fa_2
XFILLER_82_501 VGND VPWR VPWR VGND sky130_ef_sc_hd__decap_12
XFILLER_39_277 VGND VGND VPWR VPWR sky130_fd_sc_hd__decap_3
XFILLER_54_203 VGND VGND VPWR VPWR sky130_fd_sc_hd__fill_1
XFILLER_39_288 VGND VPWR VPWR VGND sky130_ef_sc_hd__decap_12
XFILLER_36_940 VGND VGND VPWR VPWR sky130_fd_sc_hd__fill_2
XFILLER_63_770 VGND VGND VPWR VPWR sky130_fd_sc_hd__decap_3
XFILLER_82_589 VGND VPWR VPWR VGND sky130_ef_sc_hd__decap_12
XFILLER_23_612 VGND VGND VPWR VPWR sky130_fd_sc_hd__decap_4
Xdadda_fa_2_104_0 _695__915/HI U$$2875/X U$$3008/X VGND VGND VPWR VPWR dadda_fa_3_105_2/CIN
+ dadda_fa_3_104_3/B sky130_fd_sc_hd__fa_1
XFILLER_63_792 VGND VPWR VPWR VGND sky130_ef_sc_hd__decap_12
XFILLER_165_1164 VGND VGND VPWR VPWR sky130_fd_sc_hd__decap_4
XFILLER_126_1126 VGND VGND VPWR VPWR sky130_fd_sc_hd__decap_4
XFILLER_161_1028 VGND VGND VPWR VPWR sky130_fd_sc_hd__decap_8
XFILLER_149_831 VGND VGND VPWR VPWR sky130_fd_sc_hd__decap_8
XFILLER_22_166 VGND VGND VPWR VPWR sky130_fd_sc_hd__decap_8
XFILLER_50_475 VGND VGND VPWR VPWR sky130_fd_sc_hd__fill_1
XU$$1290 U$$1290/A U$$1342/B VGND VGND VPWR VPWR U$$1290/X sky130_fd_sc_hd__xor2_1
XFILLER_149_897 VGND VPWR VPWR VGND sky130_ef_sc_hd__decap_12
XFILLER_136_525 VGND VGND VPWR VPWR sky130_fd_sc_hd__decap_6
XFILLER_175_182 VGND VGND VPWR VPWR sky130_fd_sc_hd__decap_8
XFILLER_163_344 VGND VGND VPWR VPWR sky130_fd_sc_hd__decap_4
XFILLER_163_355 VGND VPWR VPWR VGND sky130_ef_sc_hd__decap_12
XFILLER_136_569 VGND VPWR VPWR VGND sky130_ef_sc_hd__decap_12
XFILLER_190_141 VGND VGND VPWR VPWR sky130_fd_sc_hd__fill_1
XFILLER_151_517 VGND VPWR VPWR VGND sky130_ef_sc_hd__decap_12
XFILLER_163_377 VGND VGND VPWR VPWR sky130_fd_sc_hd__decap_4
XFILLER_85_1121 VGND VGND VPWR VPWR sky130_fd_sc_hd__fill_1
Xdadda_fa_1_90_2 U$$2581/X U$$2714/X U$$2847/X VGND VGND VPWR VPWR dadda_fa_2_91_4/CIN
+ dadda_fa_2_90_5/CIN sky130_fd_sc_hd__fa_1
XFILLER_117_11 VGND VGND VPWR VPWR sky130_fd_sc_hd__fill_1
XFILLER_163_388 VGND VGND VPWR VPWR sky130_fd_sc_hd__decap_4
XFILLER_144_580 VGND VGND VPWR VPWR sky130_fd_sc_hd__decap_8
XFILLER_2_538 VGND VGND VPWR VPWR sky130_fd_sc_hd__decap_4
XFILLER_46_1105 VGND VGND VPWR VPWR sky130_fd_sc_hd__decap_4
XFILLER_89_111 VGND VGND VPWR VPWR sky130_fd_sc_hd__fill_1
XFILLER_172_1113 VGND VGND VPWR VPWR sky130_fd_sc_hd__fill_1
XFILLER_132_731 VGND VGND VPWR VPWR sky130_fd_sc_hd__decap_4
Xdadda_fa_1_83_1 U$$1769/X U$$1902/X U$$2035/X VGND VGND VPWR VPWR dadda_fa_2_84_2/A
+ dadda_fa_2_83_4/B sky130_fd_sc_hd__fa_2
XFILLER_172_1124 VGND VPWR VPWR VGND sky130_ef_sc_hd__decap_12
XFILLER_77_15 VGND VPWR VPWR VGND sky130_ef_sc_hd__decap_12
XFILLER_89_144 VGND VGND VPWR VPWR sky130_fd_sc_hd__fill_2
Xdadda_fa_4_60_0 dadda_fa_4_60_0/A dadda_fa_4_60_0/B dadda_fa_4_60_0/CIN VGND VGND
+ VPWR VPWR dadda_fa_5_61_0/A dadda_fa_5_60_1/A sky130_fd_sc_hd__fa_1
XFILLER_172_1157 VGND VGND VPWR VPWR sky130_fd_sc_hd__decap_4
XFILLER_104_466 VGND VGND VPWR VPWR sky130_fd_sc_hd__decap_8
Xdadda_fa_1_76_0 U$$1489/X U$$1622/X U$$1755/X VGND VGND VPWR VPWR dadda_fa_2_77_0/B
+ dadda_fa_2_76_3/B sky130_fd_sc_hd__fa_2
XFILLER_77_317 VGND VGND VPWR VPWR sky130_fd_sc_hd__decap_8
XFILLER_104_477 VGND VGND VPWR VPWR sky130_fd_sc_hd__decap_6
XFILLER_120_937 VGND VPWR VPWR VGND sky130_ef_sc_hd__decap_12
XFILLER_58_531 VGND VGND VPWR VPWR sky130_fd_sc_hd__fill_1
XFILLER_86_840 VGND VGND VPWR VPWR sky130_fd_sc_hd__decap_8
XFILLER_92_309 VGND VPWR VPWR VGND sky130_ef_sc_hd__decap_12
XU$$3609 U$$3609/A U$$3625/B VGND VGND VPWR VPWR U$$3609/X sky130_fd_sc_hd__xor2_1
XTAP_3202 VGND VPWR sky130_fd_sc_hd__tapvpwrvgnd_1
XTAP_3213 VGND VPWR sky130_fd_sc_hd__tapvpwrvgnd_1
XFILLER_133_76 VGND VPWR VPWR VGND sky130_ef_sc_hd__decap_12
XTAP_3224 VGND VPWR sky130_fd_sc_hd__tapvpwrvgnd_1
XTAP_3235 VGND VPWR sky130_fd_sc_hd__tapvpwrvgnd_1
XFILLER_45_225 VGND VPWR VPWR VGND sky130_ef_sc_hd__decap_12
XFILLER_73_534 VGND VPWR VPWR VGND sky130_ef_sc_hd__decap_12
XTAP_2501 VGND VPWR sky130_fd_sc_hd__tapvpwrvgnd_1
XU$$2908 U$$2908/A U$$2960/B VGND VGND VPWR VPWR U$$2908/X sky130_fd_sc_hd__xor2_1
XFILLER_172_3 VGND VPWR VPWR VGND sky130_ef_sc_hd__decap_12
XFILLER_93_47 VGND VGND VPWR VPWR sky130_fd_sc_hd__decap_8
XTAP_3246 VGND VPWR sky130_fd_sc_hd__tapvpwrvgnd_1
X_501_ _501_/CLK _501_/D VGND VGND VPWR VPWR _501_/Q sky130_fd_sc_hd__dfxtp_1
XU$$2919 U$$4289/A1 U$$2975/A2 U$$4289/B1 U$$2975/B2 VGND VGND VPWR VPWR U$$2920/A
+ sky130_fd_sc_hd__a22o_1
XTAP_2512 VGND VPWR sky130_fd_sc_hd__tapvpwrvgnd_1
XTAP_3257 VGND VPWR sky130_fd_sc_hd__tapvpwrvgnd_1
XFILLER_27_951 VGND VGND VPWR VPWR sky130_fd_sc_hd__fill_1
XFILLER_93_69 VGND VGND VPWR VPWR sky130_fd_sc_hd__decap_4
XTAP_2523 VGND VPWR sky130_fd_sc_hd__tapvpwrvgnd_1
XTAP_3268 VGND VPWR sky130_fd_sc_hd__tapvpwrvgnd_1
XTAP_2534 VGND VPWR sky130_fd_sc_hd__tapvpwrvgnd_1
XTAP_3279 VGND VPWR sky130_fd_sc_hd__tapvpwrvgnd_1
XFILLER_26_41 VGND VPWR VPWR VGND sky130_ef_sc_hd__decap_12
Xdadda_ha_5_124_1 U$$4511/X input156/X VGND VGND VPWR VPWR dadda_fa_6_125_0/CIN dadda_fa_7_124_0/A
+ sky130_fd_sc_hd__ha_1
XTAP_1800 VGND VPWR sky130_fd_sc_hd__tapvpwrvgnd_1
XTAP_2545 VGND VPWR sky130_fd_sc_hd__tapvpwrvgnd_1
XTAP_1811 VGND VPWR sky130_fd_sc_hd__tapvpwrvgnd_1
XTAP_2556 VGND VPWR sky130_fd_sc_hd__tapvpwrvgnd_1
XTAP_1822 VGND VPWR sky130_fd_sc_hd__tapvpwrvgnd_1
X_432_ _432_/CLK _432_/D VGND VGND VPWR VPWR _432_/Q sky130_fd_sc_hd__dfxtp_2
XTAP_2567 VGND VPWR sky130_fd_sc_hd__tapvpwrvgnd_1
XTAP_1833 VGND VPWR sky130_fd_sc_hd__tapvpwrvgnd_1
XTAP_2578 VGND VPWR sky130_fd_sc_hd__tapvpwrvgnd_1
XFILLER_26_85 VGND VPWR VPWR VGND sky130_ef_sc_hd__decap_12
XTAP_1844 VGND VPWR sky130_fd_sc_hd__tapvpwrvgnd_1
XTAP_2589 VGND VPWR sky130_fd_sc_hd__tapvpwrvgnd_1
XFILLER_159_606 VGND VGND VPWR VPWR sky130_fd_sc_hd__decap_8
XFILLER_14_645 VGND VGND VPWR VPWR sky130_fd_sc_hd__decap_8
XTAP_1855 VGND VPWR sky130_fd_sc_hd__tapvpwrvgnd_1
XTAP_1866 VGND VPWR sky130_fd_sc_hd__tapvpwrvgnd_1
X_363_ _632_/CLK _363_/D VGND VGND VPWR VPWR _363_/Q sky130_fd_sc_hd__dfxtp_4
XTAP_1877 VGND VPWR sky130_fd_sc_hd__tapvpwrvgnd_1
XTAP_1888 VGND VPWR sky130_fd_sc_hd__tapvpwrvgnd_1
XTAP_1899 VGND VPWR sky130_fd_sc_hd__tapvpwrvgnd_1
XFILLER_158_149 VGND VGND VPWR VPWR sky130_fd_sc_hd__decap_8
X_294_ _612_/CLK _294_/D VGND VGND VPWR VPWR _294_/Q sky130_fd_sc_hd__dfxtp_1
XFILLER_10_840 VGND VGND VPWR VPWR sky130_fd_sc_hd__decap_8
XFILLER_173_108 VGND VGND VPWR VPWR sky130_fd_sc_hd__decap_4
XFILLER_158_51 VGND VGND VPWR VPWR sky130_fd_sc_hd__decap_4
XFILLER_155_812 VGND VPWR VPWR VGND sky130_ef_sc_hd__decap_12
XFILLER_127_503 VGND VGND VPWR VPWR sky130_fd_sc_hd__fill_1
XFILLER_158_62 VGND VPWR VPWR VGND sky130_ef_sc_hd__decap_12
XFILLER_155_856 VGND VGND VPWR VPWR sky130_fd_sc_hd__fill_1
XFILLER_127_547 VGND VPWR VPWR VGND sky130_ef_sc_hd__decap_12
Xdadda_fa_3_98_1 dadda_fa_3_98_1/A dadda_fa_3_98_1/B dadda_fa_3_98_1/CIN VGND VGND
+ VPWR VPWR dadda_fa_4_99_0/CIN dadda_fa_4_98_2/A sky130_fd_sc_hd__fa_1
XFILLER_5_354 VGND VPWR VPWR VGND sky130_ef_sc_hd__decap_12
Xdadda_fa_6_75_0 dadda_fa_6_75_0/A dadda_fa_6_75_0/B dadda_fa_6_75_0/CIN VGND VGND
+ VPWR VPWR dadda_fa_7_76_0/B dadda_fa_7_75_0/CIN sky130_fd_sc_hd__fa_1
XFILLER_170_859 VGND VGND VPWR VPWR sky130_fd_sc_hd__decap_8
XFILLER_181_196 VGND VPWR VPWR VGND sky130_ef_sc_hd__decap_12
XFILLER_174_50 VGND VPWR VPWR VGND sky130_ef_sc_hd__decap_12
XFILLER_107_293 VGND VPWR VPWR VGND sky130_ef_sc_hd__decap_12
XFILLER_68_328 VGND VGND VPWR VPWR sky130_fd_sc_hd__decap_3
XFILLER_7_1121 VGND VPWR VPWR VGND sky130_ef_sc_hd__decap_12
XFILLER_49_553 VGND VGND VPWR VPWR sky130_fd_sc_hd__decap_6
XFILLER_37_704 VGND VGND VPWR VPWR sky130_fd_sc_hd__decap_4
XFILLER_77_873 VGND VGND VPWR VPWR sky130_fd_sc_hd__decap_4
XFILLER_95_169 VGND VGND VPWR VPWR sky130_fd_sc_hd__decap_8
XFILLER_77_884 VGND VPWR VPWR VGND sky130_ef_sc_hd__decap_12
XFILLER_3_1029 VGND VPWR VPWR VGND sky130_ef_sc_hd__decap_12
XFILLER_36_214 VGND VPWR VPWR VGND sky130_ef_sc_hd__decap_12
XFILLER_49_597 VGND VPWR VPWR VGND sky130_ef_sc_hd__decap_12
XFILLER_188_1153 VGND VGND VPWR VPWR sky130_fd_sc_hd__fill_1
XFILLER_188_1164 VGND VGND VPWR VPWR sky130_fd_sc_hd__decap_4
XFILLER_18_940 VGND VGND VPWR VPWR sky130_fd_sc_hd__decap_4
XFILLER_91_331 VGND VGND VPWR VPWR sky130_fd_sc_hd__decap_4
XFILLER_18_951 VGND VGND VPWR VPWR sky130_fd_sc_hd__decap_6
XFILLER_58_1009 VGND VPWR VPWR VGND sky130_ef_sc_hd__decap_12
XFILLER_36_269 VGND VGND VPWR VPWR sky130_fd_sc_hd__fill_1
XTAP_3780 VGND VPWR sky130_fd_sc_hd__tapvpwrvgnd_1
XFILLER_64_589 VGND VGND VPWR VPWR sky130_fd_sc_hd__decap_3
XTAP_3791 VGND VPWR sky130_fd_sc_hd__tapvpwrvgnd_1
XU$$370 U$$94/B1 U$$278/X U$$96/B1 U$$279/X VGND VGND VPWR VPWR U$$371/A sky130_fd_sc_hd__a22o_1
XU$$381 U$$381/A _621_/Q VGND VGND VPWR VPWR U$$381/X sky130_fd_sc_hd__xor2_1
XU$$392 U$$940/A1 U$$278/X U$$942/A1 U$$279/X VGND VGND VPWR VPWR U$$393/A sky130_fd_sc_hd__a22o_1
XFILLER_178_937 VGND VGND VPWR VPWR sky130_fd_sc_hd__fill_1
XFILLER_32_475 VGND VGND VPWR VPWR sky130_fd_sc_hd__fill_1
XFILLER_149_138 VGND VGND VPWR VPWR sky130_fd_sc_hd__decap_4
XFILLER_20_637 VGND VGND VPWR VPWR sky130_fd_sc_hd__decap_6
XFILLER_193_929 VGND VGND VPWR VPWR sky130_fd_sc_hd__decap_4
XFILLER_186_981 VGND VPWR VPWR VGND sky130_ef_sc_hd__decap_12
XFILLER_192_439 VGND VPWR VPWR VGND sky130_ef_sc_hd__decap_12
XFILLER_157_160 VGND VGND VPWR VPWR sky130_fd_sc_hd__decap_8
XFILLER_145_300 VGND VGND VPWR VPWR sky130_fd_sc_hd__decap_6
XFILLER_9_671 VGND VGND VPWR VPWR sky130_fd_sc_hd__fill_1
XFILLER_158_694 VGND VGND VPWR VPWR sky130_fd_sc_hd__decap_6
XFILLER_118_525 VGND VGND VPWR VPWR sky130_fd_sc_hd__decap_6
XFILLER_145_333 VGND VGND VPWR VPWR sky130_fd_sc_hd__decap_3
XFILLER_69_1116 VGND VGND VPWR VPWR sky130_fd_sc_hd__decap_4
XFILLER_157_193 VGND VPWR VPWR VGND sky130_ef_sc_hd__decap_12
XFILLER_8_192 VGND VGND VPWR VPWR sky130_fd_sc_hd__decap_4
XFILLER_160_303 VGND VGND VPWR VPWR sky130_fd_sc_hd__decap_4
Xdadda_fa_2_93_0 U$$2853/X U$$2986/X U$$3119/X VGND VGND VPWR VPWR dadda_fa_3_94_0/B
+ dadda_fa_3_93_2/B sky130_fd_sc_hd__fa_1
XFILLER_133_517 VGND VGND VPWR VPWR sky130_fd_sc_hd__decap_4
XFILLER_160_336 VGND VGND VPWR VPWR sky130_fd_sc_hd__fill_2
XFILLER_114_753 VGND VGND VPWR VPWR sky130_fd_sc_hd__decap_3
XFILLER_141_561 VGND VGND VPWR VPWR sky130_fd_sc_hd__decap_8
XFILLER_102_937 VGND VPWR VPWR VGND sky130_ef_sc_hd__decap_12
XFILLER_87_659 VGND VPWR VPWR VGND sky130_ef_sc_hd__decap_12
XFILLER_86_136 VGND VGND VPWR VPWR sky130_fd_sc_hd__decap_4
XFILLER_101_447 VGND VGND VPWR VPWR sky130_fd_sc_hd__fill_1
Xdadda_fa_1_62_6 dadda_fa_1_62_6/A dadda_fa_1_62_6/B dadda_fa_1_62_6/CIN VGND VGND
+ VPWR VPWR dadda_fa_2_63_2/B dadda_fa_2_62_5/B sky130_fd_sc_hd__fa_1
Xdadda_fa_1_55_5 U$$2777/X U$$2910/X U$$3043/X VGND VGND VPWR VPWR dadda_fa_2_56_2/A
+ dadda_fa_2_55_5/A sky130_fd_sc_hd__fa_1
XFILLER_41_1057 VGND VGND VPWR VPWR sky130_fd_sc_hd__decap_6
XFILLER_82_320 VGND VPWR VPWR VGND sky130_ef_sc_hd__decap_12
XFILLER_94_180 VGND VPWR VPWR VGND sky130_ef_sc_hd__decap_12
Xdadda_fa_1_48_4 U$$1699/X U$$1832/X U$$1965/X VGND VGND VPWR VPWR dadda_fa_2_49_2/B
+ dadda_fa_2_48_5/A sky130_fd_sc_hd__fa_1
XFILLER_43_718 VGND VGND VPWR VPWR sky130_fd_sc_hd__decap_8
XFILLER_70_504 VGND VGND VPWR VPWR sky130_fd_sc_hd__decap_3
XTAP_1107 VGND VPWR sky130_fd_sc_hd__tapvpwrvgnd_1
XTAP_1118 VGND VPWR sky130_fd_sc_hd__tapvpwrvgnd_1
XTAP_1129 VGND VPWR sky130_fd_sc_hd__tapvpwrvgnd_1
Xdadda_fa_4_18_2 dadda_fa_4_18_2/A dadda_fa_4_18_2/B dadda_ha_3_18_2/SUM VGND VGND
+ VPWR VPWR dadda_fa_5_19_0/CIN dadda_fa_5_18_1/CIN sky130_fd_sc_hd__fa_1
XFILLER_23_420 VGND VPWR VPWR VGND sky130_ef_sc_hd__decap_12
XFILLER_168_425 VGND VGND VPWR VPWR sky130_fd_sc_hd__fill_1
XFILLER_11_604 VGND VPWR VPWR VGND sky130_ef_sc_hd__decap_12
XFILLER_177_970 VGND VGND VPWR VPWR sky130_fd_sc_hd__decap_4
Xdadda_fa_7_92_0 dadda_fa_7_92_0/A dadda_fa_7_92_0/B dadda_fa_7_92_0/CIN VGND VGND
+ VPWR VPWR _517_/D _388_/D sky130_fd_sc_hd__fa_1
XFILLER_155_108 VGND VGND VPWR VPWR sky130_fd_sc_hd__decap_4
XFILLER_109_503 VGND VGND VPWR VPWR sky130_fd_sc_hd__fill_1
XFILLER_52_1164 VGND VGND VPWR VPWR sky130_fd_sc_hd__decap_4
XFILLER_148_182 VGND VGND VPWR VPWR sky130_fd_sc_hd__decap_4
XFILLER_137_889 VGND VGND VPWR VPWR sky130_fd_sc_hd__decap_6
XFILLER_191_461 VGND VPWR VPWR VGND sky130_ef_sc_hd__decap_12
XFILLER_164_697 VGND VGND VPWR VPWR sky130_fd_sc_hd__decap_3
XFILLER_2_302 VGND VGND VPWR VPWR sky130_fd_sc_hd__decap_6
XFILLER_3_836 VGND VGND VPWR VPWR sky130_fd_sc_hd__decap_4
XFILLER_88_36 VGND VPWR VPWR VGND sky130_ef_sc_hd__decap_12
XFILLER_151_369 VGND VGND VPWR VPWR sky130_fd_sc_hd__fill_2
XFILLER_120_701 VGND VGND VPWR VPWR sky130_fd_sc_hd__decap_4
XFILLER_144_42 VGND VGND VPWR VPWR sky130_fd_sc_hd__decap_6
XFILLER_120_734 VGND VGND VPWR VPWR sky130_fd_sc_hd__decap_8
XU$$4107 U$$819/A1 U$$4107/A2 U$$4107/B1 U$$4107/B2 VGND VGND VPWR VPWR U$$4108/A
+ sky130_fd_sc_hd__a22o_1
XU$$4118 _552_/Q U$$4244/A2 U$$969/A1 U$$4244/B2 VGND VGND VPWR VPWR U$$4119/A sky130_fd_sc_hd__a22o_1
XU$$4129 U$$4129/A U$$4246/A VGND VGND VPWR VPWR U$$4129/X sky130_fd_sc_hd__xor2_1
XFILLER_59_873 VGND VGND VPWR VPWR sky130_fd_sc_hd__decap_4
XFILLER_59_884 VGND VGND VPWR VPWR sky130_fd_sc_hd__decap_4
XFILLER_59_895 VGND VGND VPWR VPWR sky130_fd_sc_hd__fill_1
XU$$3406 U$$4502/A1 U$$3292/X U$$4504/A1 U$$3293/X VGND VGND VPWR VPWR U$$3407/A sky130_fd_sc_hd__a22o_1
XTAP_3010 VGND VPWR sky130_fd_sc_hd__tapvpwrvgnd_1
XU$$3417 U$$3417/A _665_/Q VGND VGND VPWR VPWR U$$3417/X sky130_fd_sc_hd__xor2_1
XFILLER_46_523 VGND VGND VPWR VPWR sky130_fd_sc_hd__decap_8
XU$$3428 _667_/Q U$$3428/B VGND VGND VPWR VPWR U$$3428/X sky130_fd_sc_hd__and2_1
XTAP_3021 VGND VPWR sky130_fd_sc_hd__tapvpwrvgnd_1
XU$$3439 U$$14/A1 U$$3525/A2 _556_/Q U$$3525/B2 VGND VGND VPWR VPWR U$$3440/A sky130_fd_sc_hd__a22o_1
XFILLER_19_759 VGND VGND VPWR VPWR sky130_fd_sc_hd__fill_1
XTAP_3032 VGND VPWR sky130_fd_sc_hd__tapvpwrvgnd_1
XU$$2705 _599_/Q U$$2729/A2 U$$926/A1 U$$2729/B2 VGND VGND VPWR VPWR U$$2706/A sky130_fd_sc_hd__a22o_1
XTAP_3043 VGND VPWR sky130_fd_sc_hd__tapvpwrvgnd_1
XTAP_3054 VGND VPWR sky130_fd_sc_hd__tapvpwrvgnd_1
XU$$2716 U$$2716/A _655_/Q VGND VGND VPWR VPWR U$$2716/X sky130_fd_sc_hd__xor2_1
XTAP_2320 VGND VPWR sky130_fd_sc_hd__tapvpwrvgnd_1
XFILLER_46_578 VGND VGND VPWR VPWR sky130_fd_sc_hd__decap_8
XU$$2727 U$$4508/A1 U$$2729/A2 U$$4510/A1 U$$2729/B2 VGND VGND VPWR VPWR U$$2728/A
+ sky130_fd_sc_hd__a22o_1
XTAP_3065 VGND VPWR sky130_fd_sc_hd__tapvpwrvgnd_1
XFILLER_46_589 VGND VGND VPWR VPWR sky130_fd_sc_hd__fill_1
XFILLER_74_898 VGND VGND VPWR VPWR sky130_fd_sc_hd__fill_1
XTAP_2331 VGND VPWR sky130_fd_sc_hd__tapvpwrvgnd_1
XU$$2738 U$$2738/A _655_/Q VGND VGND VPWR VPWR U$$2738/X sky130_fd_sc_hd__xor2_1
XTAP_3076 VGND VPWR sky130_fd_sc_hd__tapvpwrvgnd_1
XFILLER_160_85 VGND VGND VPWR VPWR sky130_fd_sc_hd__decap_8
XU$$2749 U$$2749/A U$$2797/B VGND VGND VPWR VPWR U$$2749/X sky130_fd_sc_hd__xor2_2
XTAP_2342 VGND VPWR sky130_fd_sc_hd__tapvpwrvgnd_1
XTAP_3087 VGND VPWR sky130_fd_sc_hd__tapvpwrvgnd_1
Xdadda_fa_3_20_2 U$$845/X U$$978/X U$$1111/X VGND VGND VPWR VPWR dadda_fa_4_21_1/A
+ dadda_fa_4_20_2/B sky130_fd_sc_hd__fa_2
XTAP_2353 VGND VPWR sky130_fd_sc_hd__tapvpwrvgnd_1
XTAP_3098 VGND VPWR sky130_fd_sc_hd__tapvpwrvgnd_1
XTAP_2364 VGND VPWR sky130_fd_sc_hd__tapvpwrvgnd_1
XTAP_1630 VGND VPWR sky130_fd_sc_hd__tapvpwrvgnd_1
XTAP_2375 VGND VPWR sky130_fd_sc_hd__tapvpwrvgnd_1
XTAP_1641 VGND VPWR sky130_fd_sc_hd__tapvpwrvgnd_1
XFILLER_61_559 VGND VGND VPWR VPWR sky130_fd_sc_hd__fill_1
XFILLER_14_431 VGND VGND VPWR VPWR sky130_fd_sc_hd__decap_4
XTAP_2386 VGND VPWR sky130_fd_sc_hd__tapvpwrvgnd_1
X_415_ _598_/CLK _415_/D VGND VGND VPWR VPWR _415_/Q sky130_fd_sc_hd__dfxtp_1
XFILLER_15_965 VGND VGND VPWR VPWR sky130_fd_sc_hd__fill_2
XTAP_1652 VGND VPWR sky130_fd_sc_hd__tapvpwrvgnd_1
XTAP_2397 VGND VPWR sky130_fd_sc_hd__tapvpwrvgnd_1
XTAP_1663 VGND VPWR sky130_fd_sc_hd__tapvpwrvgnd_1
XFILLER_15_987 VGND VPWR VPWR VGND sky130_ef_sc_hd__decap_12
XTAP_1674 VGND VPWR sky130_fd_sc_hd__tapvpwrvgnd_1
XFILLER_144_1034 VGND VGND VPWR VPWR sky130_fd_sc_hd__fill_2
XTAP_1685 VGND VPWR sky130_fd_sc_hd__tapvpwrvgnd_1
XFILLER_159_447 VGND VGND VPWR VPWR sky130_fd_sc_hd__fill_1
XFILLER_18_1048 VGND VGND VPWR VPWR sky130_fd_sc_hd__fill_1
XTAP_1696 VGND VPWR sky130_fd_sc_hd__tapvpwrvgnd_1
X_346_ _474_/CLK _346_/D VGND VGND VPWR VPWR _346_/Q sky130_fd_sc_hd__dfxtp_1
XFILLER_53_94 VGND VGND VPWR VPWR sky130_fd_sc_hd__fill_1
XFILLER_187_778 VGND VGND VPWR VPWR sky130_fd_sc_hd__decap_6
XFILLER_186_277 VGND VGND VPWR VPWR sky130_fd_sc_hd__decap_8
XFILLER_168_981 VGND VPWR VPWR VGND sky130_ef_sc_hd__decap_12
X_277_ _280_/CLK _277_/D VGND VGND VPWR VPWR _277_/Q sky130_fd_sc_hd__dfxtp_1
XFILLER_155_642 VGND VGND VPWR VPWR sky130_fd_sc_hd__decap_4
XFILLER_6_630 VGND VGND VPWR VPWR sky130_fd_sc_hd__decap_4
XFILLER_127_333 VGND VGND VPWR VPWR sky130_fd_sc_hd__decap_3
XFILLER_139_193 VGND VGND VPWR VPWR sky130_fd_sc_hd__fill_1
XFILLER_155_653 VGND VPWR VPWR VGND sky130_ef_sc_hd__decap_12
XFILLER_143_804 VGND VPWR VPWR VGND sky130_ef_sc_hd__decap_12
XFILLER_154_141 VGND VGND VPWR VPWR sky130_fd_sc_hd__fill_1
XFILLER_170_601 VGND VGND VPWR VPWR sky130_fd_sc_hd__fill_1
XFILLER_115_517 VGND VGND VPWR VPWR sky130_fd_sc_hd__decap_4
XFILLER_115_528 VGND VGND VPWR VPWR sky130_fd_sc_hd__decap_4
XFILLER_29_1100 VGND VPWR VPWR VGND sky130_ef_sc_hd__decap_12
XFILLER_69_615 VGND VGND VPWR VPWR sky130_fd_sc_hd__fill_1
XFILLER_123_561 VGND VGND VPWR VPWR sky130_fd_sc_hd__decap_4
Xdadda_fa_2_72_5 dadda_fa_2_72_5/A dadda_fa_2_72_5/B dadda_fa_2_72_5/CIN VGND VGND
+ VPWR VPWR dadda_fa_3_73_2/A dadda_fa_4_72_0/A sky130_fd_sc_hd__fa_2
XFILLER_68_103 VGND VPWR VPWR VGND sky130_ef_sc_hd__decap_12
XFILLER_190_1076 VGND VPWR VPWR VGND sky130_ef_sc_hd__decap_12
Xdadda_fa_2_65_4 dadda_fa_2_65_4/A dadda_fa_2_65_4/B dadda_fa_2_65_4/CIN VGND VGND
+ VPWR VPWR dadda_fa_3_66_1/CIN dadda_fa_3_65_3/CIN sky130_fd_sc_hd__fa_1
XFILLER_64_1079 VGND VGND VPWR VPWR sky130_fd_sc_hd__fill_2
XFILLER_97_968 VGND VGND VPWR VPWR sky130_fd_sc_hd__decap_4
XFILLER_97_979 VGND VGND VPWR VPWR sky130_fd_sc_hd__decap_8
Xdadda_fa_2_58_3 dadda_fa_2_58_3/A dadda_fa_2_58_3/B dadda_fa_2_58_3/CIN VGND VGND
+ VPWR VPWR dadda_fa_3_59_1/B dadda_fa_3_58_3/B sky130_fd_sc_hd__fa_1
XFILLER_49_361 VGND VGND VPWR VPWR sky130_fd_sc_hd__decap_8
XFILLER_110_277 VGND VGND VPWR VPWR sky130_fd_sc_hd__decap_8
XFILLER_65_821 VGND VGND VPWR VPWR sky130_fd_sc_hd__decap_4
XFILLER_65_832 VGND VGND VPWR VPWR sky130_fd_sc_hd__decap_8
XFILLER_37_556 VGND VGND VPWR VPWR sky130_fd_sc_hd__decap_4
XFILLER_65_865 VGND VGND VPWR VPWR sky130_fd_sc_hd__decap_6
XU$$3940 U$$787/B1 U$$3970/A2 U$$654/A1 U$$3970/B2 VGND VGND VPWR VPWR U$$3941/A sky130_fd_sc_hd__a22o_1
Xdadda_fa_5_28_1 dadda_fa_5_28_1/A dadda_fa_5_28_1/B dadda_fa_5_28_1/CIN VGND VGND
+ VPWR VPWR dadda_fa_6_29_0/B dadda_fa_7_28_0/A sky130_fd_sc_hd__fa_1
XU$$3951 U$$3951/A U$$3969/B VGND VGND VPWR VPWR U$$3951/X sky130_fd_sc_hd__xor2_1
XU$$3962 _611_/Q U$$3970/A2 U$$539/A1 U$$3970/B2 VGND VGND VPWR VPWR U$$3963/A sky130_fd_sc_hd__a22o_1
XU$$3973 _673_/Q VGND VGND VPWR VPWR U$$3973/Y sky130_fd_sc_hd__inv_1
XU$$3984 U$$3984/A U$$4044/B VGND VGND VPWR VPWR U$$3984/X sky130_fd_sc_hd__xor2_2
XU$$3995 _559_/Q U$$4045/A2 U$$4271/A1 U$$4063/B2 VGND VGND VPWR VPWR U$$3996/A sky130_fd_sc_hd__a22o_1
XFILLER_52_559 VGND VGND VPWR VPWR sky130_fd_sc_hd__decap_3
XFILLER_178_701 VGND VPWR VPWR VGND sky130_ef_sc_hd__decap_12
XFILLER_80_879 VGND VPWR VPWR VGND sky130_ef_sc_hd__decap_12
XFILLER_75_1164 VGND VGND VPWR VPWR sky130_fd_sc_hd__decap_4
XFILLER_71_1017 VGND VGND VPWR VPWR sky130_fd_sc_hd__fill_2
XFILLER_166_907 VGND VGND VPWR VPWR sky130_fd_sc_hd__fill_2
XFILLER_159_981 VGND VGND VPWR VPWR sky130_fd_sc_hd__decap_8
XFILLER_174_962 VGND VGND VPWR VPWR sky130_fd_sc_hd__fill_2
XFILLER_165_19 VGND VGND VPWR VPWR sky130_fd_sc_hd__decap_4
Xdadda_fa_5_102_1 dadda_fa_5_102_1/A dadda_fa_5_102_1/B dadda_fa_5_102_1/CIN VGND
+ VGND VPWR VPWR dadda_fa_6_103_0/B dadda_fa_7_102_0/A sky130_fd_sc_hd__fa_2
XFILLER_106_506 VGND VPWR VPWR VGND sky130_ef_sc_hd__decap_12
XFILLER_173_494 VGND VGND VPWR VPWR sky130_fd_sc_hd__decap_8
XFILLER_160_122 VGND VGND VPWR VPWR sky130_fd_sc_hd__decap_3
XFILLER_134_859 VGND VGND VPWR VPWR sky130_fd_sc_hd__decap_8
XFILLER_161_667 VGND VGND VPWR VPWR sky130_fd_sc_hd__decap_4
Xoutput264 _274_/Q VGND VGND VPWR VPWR o[106] sky130_fd_sc_hd__buf_2
Xoutput275 _284_/Q VGND VGND VPWR VPWR o[116] sky130_fd_sc_hd__buf_2
XFILLER_99_261 VGND VPWR VPWR VGND sky130_ef_sc_hd__decap_12
Xoutput286 _294_/Q VGND VGND VPWR VPWR o[126] sky130_fd_sc_hd__buf_2
X_748__800 VGND VGND VPWR VPWR _748__800/HI U$$3294/A1 sky130_fd_sc_hd__conb_1
Xoutput297 _188_/Q VGND VGND VPWR VPWR o[20] sky130_fd_sc_hd__buf_2
XFILLER_102_723 VGND VPWR VPWR VGND sky130_ef_sc_hd__decap_12
XFILLER_181_18 VGND VGND VPWR VPWR sky130_fd_sc_hd__decap_4
XFILLER_141_391 VGND VGND VPWR VPWR sky130_fd_sc_hd__fill_1
XFILLER_59_147 VGND VPWR VPWR VGND sky130_ef_sc_hd__decap_12
XFILLER_87_456 VGND VGND VPWR VPWR sky130_fd_sc_hd__decap_6
XFILLER_59_169 VGND VPWR VPWR VGND sky130_ef_sc_hd__decap_12
Xdadda_fa_1_60_3 U$$3186/X U$$3319/X U$$3452/X VGND VGND VPWR VPWR dadda_fa_2_61_1/B
+ dadda_fa_2_60_4/B sky130_fd_sc_hd__fa_1
XFILLER_68_681 VGND VGND VPWR VPWR sky130_fd_sc_hd__decap_3
XFILLER_101_277 VGND VGND VPWR VPWR sky130_fd_sc_hd__decap_3
Xdadda_fa_1_53_2 U$$1177/X U$$1310/X U$$1443/X VGND VGND VPWR VPWR dadda_fa_2_54_1/A
+ dadda_fa_2_53_4/A sky130_fd_sc_hd__fa_1